Questionable use of curly braces in ".model sir870adp vdmos(rg=3 vto=2.9 rd=3.2m rs=1.5m rb={m} kp=100 mtriode=1.85 cgdmax=1.4n cgdmin=70p cgs=2.9n cjo=3.6n m=.4 a=.7 vj=.7 lambda=20m is=3p ksubthres=.08 mfg=siliconix vds=100 ron=5.5m qg=53.5n)"
    Error: undefined symbol in: "[m]"
Circuit: * Z:\home\abel\Desktop\Abel\Facu\Electrónica Industrial\Industrial Electronics\TPT9\Simulations\Control de motor de corriente continua\Control de motor CC.asc

Limiting rise time of source v2 to 4.2e-006
Limiting fall time of source v2 to 4.2e-006
.OP point found by inspection.

Date: Sun Jun 09 19:28:30 2024
Total elapsed time: 0.832 seconds.

tnom = 27
temp = 27
method = modified trap
totiter = 192727
traniter = 192727
tranpoints = 54993
accept = 41725
rejected = 13268
matrix size = 11
fillins = 1
solver = Normal
Matrix Compiler1: 588 bytes object code size  0.2/0.1/[0.1]
Matrix Compiler2: 827 bytes object code size  0.1/0.1/[0.1]


