Circuit: * Z:\home\abel\Desktop\Abel\Facu\Electrónica Industrial\Industrial Electronics\TPT8\Simulaciones\Circuito rectificador monofásico totalmente controlado con diodo volante carga RL.asc

.OP point found by inspection.

Date: Fri Jun 07 14:07:40 2024
Total elapsed time: 0.446 seconds.

tnom = 27
temp = 27
method = modified trap
totiter = 31105
traniter = 31105
tranpoints = 11230
accept = 9008
rejected = 2222
matrix size = 113
fillins = 87
solver = Normal
Thread vector: 8.8/6.3[3] 1.4/1.7[1] 3.6/1.9[3] 0.3/1.2[1]  2592/500
Matrix Compiler1: 7.64 KB object code size  1.5/0.8/[0.4]
Matrix Compiler2: 8.84 KB object code size  0.5/1.0/[0.4]


